test/test_files/pm_example_res.json
{"solve_time":6.2699220180511475,"optimizer":"Ipopt","termination_status":"LOCALLY_SOLVED","dual_status":"FEASIBLE_POINT","primal_status":"FEASIBLE_POINT","objective":0.49999800250613846,"solution":{"baseMVA":1,"gen":{"1":{"qg":-0.43292177003350407,"pg":0.03856408053812072},"2":{"qg":0.02697142276838811,"pg":0.00499999}},"branch":{"1":{"qf":-0.43292177003350407,"qt":0.02697142276838811,"pf":0.03856408053812072,"pt":-0.015000019974938616}},"bus":{"1":{"va":0.0,"vm":0.9999999999999999},"2":{"va":-0.1024281449788669,"vm":1.0016228564122849}},"per_unit":true},"machine":{"cpu":"Intel(R) Core(TM) i7-8550U CPU @ 1.80GHz","memory":"15.452747344970703 Gb"},"data":{"name":"","bus_count":2,"branch_count":1},"objective_lb":null}